# 11DIETHYL22DICARBOCYANINE  xyzzy
# Created by GaussView 5.0.9
#

#
#

@<TRIPOS>MOLECULE
Molecule Name
56 59
SMALL
NO_CHARGES


@<TRIPOS>ATOM
1 N1     0.0000     5.0160    -0.7399 N
2 C2     0.0000     3.7978     0.0343 C
3 C3     0.0000     3.9017     1.4898 C
4 C4     0.0000     5.0629     2.1386 C
5 C5    -0.0000     6.2993     1.3723 C
6 C6     0.0000     6.2720    -0.0522 C
7 C7     0.0000     7.5453    -0.6421 C
8 C8    -0.0000     8.7445     0.0971 C
9 C9    -0.0000     8.7223     1.4788 C
10 C10     0.0000     7.4960     2.1184 C
11 H11    -0.0000     3.0001     2.0882 H
12 H12    -0.0000     5.0967     3.2214 H
13 H13     0.0000     7.4699     3.2055 H
14 H14    -0.0000     9.6450     2.0503 H
15 H15     0.0000     9.6969    -0.4279 H
16 H16    -0.0000     7.7100    -1.7027 H
17 H17     0.0000    -7.7097    -1.7028 H
18 C18     0.0000    -7.5452    -0.6422 C
19 C19     0.0000    -8.7444     0.0969 C
20 C20     0.0000    -8.7224     1.4787 C
21 C21     0.0000    -7.4962     2.1184 C
22 C22     0.0000    -6.2994     1.3724 C
23 C23     0.0000    -6.2720    -0.0521 C
24 N24     0.0000    -5.0159    -0.7396 N
25 C25     0.0000    -3.7978     0.0347 C
26 C26     0.0000    -3.9019     1.4902 C
27 C27    -0.0000    -5.0631     2.1389 C
28 H28     0.0000    -9.6968    -0.4282 H
29 H29     0.0000    -9.6452     2.0500 H
30 H30    -0.0000    -7.4702     3.2054 H
31 H31    -0.0000    -5.0971     3.2217 H
32 H32    -0.0000    -3.0004     2.0887 H
33 C33     0.0000    -2.4712    -0.6246 C
34 C34     0.0000    -4.8569    -2.2273 C
35 H35    -0.8857    -4.2608    -2.4856 H
36 H36     0.8857    -4.2608    -2.4856 H
37 C37     0.0000    -5.9975    -3.2157 C
38 H38    -0.9048    -6.6074    -3.1390 H
39 H39     0.9048    -6.6074    -3.1390 H
40 H40     0.0000    -5.5893    -4.2341 H
41 C41     0.0000     4.8572    -2.2276 C
42 H42     0.8857     4.2612    -2.4860 H
43 H43    -0.8857     4.2612    -2.4860 H
44 C44     0.0000     5.9980    -3.2158 C
45 H45     0.9048     6.6078    -3.1391 H
46 H46    -0.9048     6.6078    -3.1391 H
47 H47     0.0000     5.5899    -4.2343 H
48 C48     0.0000    -1.2788    -0.0053 C
49 C49     0.0000    -0.0007    -0.6862 C
50 C50     0.0000     1.2785    -0.0062 C
51 C51     0.0000     2.4714    -0.6253 C
52 H52     0.0000    -2.4477    -1.7073 H
53 H53     0.0000    -1.2065     1.0769 H
54 H54     0.0000    -0.0008    -1.7733 H
55 H55     0.0000     1.2064     1.0761 H
56 H56     0.0000     2.4479    -1.7080 H
@<TRIPOS>BOND
1 1 2 Ar
2 1 6 Ar
3 1 41 1
4 2 3 Ar
5 2 51 Ar
6 3 4 Ar
7 3 11 1
8 4 5 Ar
9 4 12 1
10 5 6 Ar
11 5 10 Ar
12 6 7 Ar
13 7 8 Ar
14 7 16 1
15 8 9 Ar
16 8 15 1
17 9 10 Ar
18 9 14 1
19 10 13 1
20 17 18 1
21 18 19 Ar
22 18 23 Ar
23 19 20 Ar
24 19 28 1
25 20 21 Ar
26 20 29 1
27 21 22 Ar
28 21 30 1
29 22 23 Ar
30 22 27 Ar
31 23 24 Ar
32 24 25 Ar
33 24 34 1
34 25 26 Ar
35 25 33 Ar
36 26 27 Ar
37 26 32 1
38 27 31 1
39 33 48 Ar
40 33 52 1
41 34 35 1
42 34 36 1
43 34 37 1
44 37 38 1
45 37 39 1
46 37 40 1
47 41 42 1
48 41 43 1
49 41 44 1
50 44 45 1
51 44 46 1
52 44 47 1
53 48 49 Ar
54 48 53 1
55 49 50 Ar
56 49 54 1
57 50 51 Ar
58 50 55 1
59 51 56 1
