# 11DIETHYL44DICARBOCYANINE  xyzzy
# Created by GaussView 5.0.9
#

#
#

@<TRIPOS>MOLECULE
Molecule Name
56 59
SMALL
NO_CHARGES


@<TRIPOS>ATOM
1 N1    -0.0000    -6.4718    -1.3440 N
2 C2     0.0000    -5.2894    -2.0876 C
3 C3    -0.0000    -4.0528    -1.5860 C
4 C4    -0.0000    -3.8152    -0.1439 C
5 C5    -0.0000    -4.9213     0.6666 C
6 C6     0.0000    -6.3293     0.0665 C
7 C7    -0.0000    -7.4475     1.0114 C
8 C8    -0.0000    -7.2534     2.3399 C
9 C9    -0.0000    -5.9328     2.9130 C
10 C10    -0.0000    -4.8341     2.1431 C
11 H11    -0.0000    -3.8807     2.6508 H
12 H12    -0.0000    -5.8501     3.9954 H
13 H13    -0.0000    -8.0984     3.0215 H
14 H14    -0.0000    -8.4686     0.6861 H
15 H15     0.0000     8.4823     0.6845 H
16 C16     0.0000     7.4626     1.0141 C
17 C17     0.0000     7.2731     2.3434 C
18 C18     0.0000     5.9548     2.9222 C
19 C19    -0.0000     4.8527     2.1574 C
20 C20     0.0000     4.9356     0.6808 C
21 C21     0.0000     6.3396     0.0751 C
22 N22     0.0000     6.4733    -1.3369 N
23 C23     0.0000     5.2860    -2.0745 C
24 C24     0.0000     4.0522    -1.5658 C
25 C25     0.0000     3.8260    -0.1231 C
26 H26     0.0000     8.1206     3.0218 H
27 H27    -0.0000     5.8767     4.0049 H
28 H28    -0.0000     3.8997     2.6661 H
29 C29    -0.0000     0.0072     0.3530 C
30 C30     0.0000     7.6920    -2.1903 C
31 H31     0.8779     7.6325    -2.8488 H
32 H32    -0.8779     7.6325    -2.8488 H
33 C33    -0.0000     9.0792    -1.5975 C
34 H34     0.9012     9.2689    -1.0075 H
35 H35    -0.9012     9.2689    -1.0075 H
36 H36    -0.0000     9.8199    -2.4059 H
37 C37     0.0000    -7.6949    -2.1909 C
38 H38    -0.8779    -7.6388    -2.8497 H
39 H39     0.8779    -7.6388    -2.8497 H
40 C40     0.0000    -9.0792    -1.5913 C
41 H41    -0.9012    -9.2660    -1.0005 H
42 H42     0.9012    -9.2660    -1.0005 H
43 H43     0.0000    -9.8237    -2.3963 H
44 C44    -0.0000    -1.2843    -0.3054 C
45 C45    -0.0000    -2.4361     0.3906 C
46 H46    -0.0000    -0.0018     1.4417 H
47 H47    -0.0000    -1.2723    -1.3900 H
48 H48    -0.0000    -2.3298     1.4684 H
49 H49     0.0000     5.4173    -3.1540 H
50 H50    -0.0000    -5.4263    -3.1664 H
51 H51    -0.0000    -3.2169    -2.2728 H
52 C52    -0.0000     1.1804    -0.2995 C
53 C53    -0.0000     2.4508     0.4069 C
54 H54    -0.0000     1.1972    -1.3840 H
55 H55    -0.0000     2.3310     1.4836 H
56 H56     0.0000     3.2074    -2.2420 H
@<TRIPOS>BOND
1 1 2 Ar
2 1 6 Ar
3 1 37 1
4 2 3 Ar
5 2 50 1
6 3 4 Ar
7 3 51 1
8 4 5 Ar
9 4 45 Ar
10 5 6 Ar
11 5 10 Ar
12 6 7 Ar
13 7 8 Ar
14 7 14 1
15 8 9 Ar
16 8 13 1
17 9 10 Ar
18 9 12 1
19 10 11 1
20 15 16 1
21 16 17 Ar
22 16 21 Ar
23 17 18 Ar
24 17 26 1
25 18 19 Ar
26 18 27 1
27 19 20 Ar
28 19 28 1
29 20 21 Ar
30 20 25 Ar
31 21 22 Ar
32 22 23 Ar
33 22 30 1
34 23 24 Ar
35 23 49 1
36 24 25 Ar
37 24 56 1
38 25 53 Ar
39 29 44 Ar
40 29 46 1
41 29 52 Ar
42 30 31 1
43 30 32 1
44 30 33 1
45 33 34 1
46 33 35 1
47 33 36 1
48 37 38 1
49 37 39 1
50 37 40 1
51 40 41 1
52 40 42 1
53 40 43 1
54 44 45 Ar
55 44 47 1
56 45 48 1
57 52 53 Ar
58 52 54 1
59 53 55 1
