# Molecule Name
# Created by GaussView 6.0.16
#

#
#

@<TRIPOS>MOLECULE
Molecule Name
48 51
SMALL
NO_CHARGES


@<TRIPOS>ATOM
1 N1     0.1274     2.3859    -0.7786 N
2 C2     0.1767     1.2442    -0.1542 C
3 C3    -0.0407     1.1671     1.3644 C
4 C4    -0.2958     2.2949     2.0520 C
5 C5    -0.3665     3.6226     1.2918 C
6 C6    -0.1571     3.6406    -0.0479 C
7 C7    -0.2156     4.9812    -0.8056 C
8 C8    -0.4822     6.1266    -0.1350 C
9 C9    -0.7293     6.0956     1.3829 C
10 C10    -0.6726     4.9240     2.0533 C
11 H11     0.0101     0.2236     1.8666 H
12 H12    -0.4477     2.2627     3.1100 H
13 H13    -0.8397     4.8998     3.1071 H
14 H14    -0.9454     7.0015     1.9061 H
15 H15    -0.5216     7.0574    -0.6595 H
16 H16    -0.0461     5.0064    -1.8620 H
17 H17    -0.0174    -5.0100    -1.9355 H
18 C18    -0.1391    -4.9659    -0.8751 C
19 C19    -0.5633    -6.0593    -0.2007 C
20 C20    -0.7301    -6.0082     1.3267 C
21 C21    -0.4910    -4.8600     1.9935 C
22 C22    -0.0514    -3.5992     1.2274 C
23 C23     0.1769    -3.6591    -0.1144 C
24 N24     0.7422    -2.5143    -0.8751 N
25 C25     0.4950    -1.2198    -0.2051 C
26 C26     0.3027    -1.1517     1.3130 C
27 C27     0.1012    -2.2845     1.9977 C
28 H28    -0.7812    -6.9635    -0.7278 H
29 H29    -1.0394    -6.8799     1.8581 H
30 H30    -0.6150    -4.8221     3.0564 H
31 H31     0.0262    -2.2682     3.0634 H
32 H32     0.3193    -0.2095     1.8197 H
33 C33     0.4494    -0.0665    -0.9180 C
34 C34     0.1399    -2.4934    -2.2173 C
35 H35    -0.9145    -2.3443    -2.1349 H
36 H36     0.5705    -1.6976    -2.7879 H
37 C37     0.4168    -3.8374    -2.9160 C
38 H38    -0.0125    -4.6304    -2.3419 H
39 H39     1.4716    -3.9874    -2.9951 H
40 H40    -0.0169    -3.8279    -3.8923 H
41 C41     0.3547     2.4290    -2.2302 C
42 H42     1.0209     1.6409    -2.5092 H
43 H43    -0.5801     2.3052    -2.7419 H
44 C44     0.9773     3.7904    -2.6121 C
45 H45     1.9113     3.9141    -2.0974 H
46 H46     0.3064     4.5796    -2.3335 H
47 H47     1.1459     3.8226    -3.6680 H
48 H48     0.5970    -0.0677    -1.9751 H
@<TRIPOS>BOND
1 1 2 2
2 1 6 1
3 1 41 1
4 2 3 1
5 2 33 1
6 3 4 2
7 3 11 1
8 4 5 1
9 4 12 1
10 5 6 2
11 5 10 1
12 6 7 1
13 7 8 2
14 7 16 1
15 8 9 1
16 8 15 1
17 9 10 2
18 9 14 1
19 10 13 1
20 17 18 1
21 18 19 2
22 18 23 1
23 19 20 1
24 19 28 1
25 20 21 2
26 20 29 1
27 21 22 1
28 21 30 1
29 22 23 2
30 22 27 1
31 23 24 1
32 24 25 1
33 24 34 1
34 25 26 1
35 25 33 2
36 26 27 2
37 26 32 1
38 27 31 1
39 33 48 1
40 34 35 1
41 34 36 1
42 34 37 1
43 37 38 1
44 37 39 1
45 37 40 1
46 41 42 1
47 41 43 1
48 41 44 1
49 44 45 1
50 44 46 1
51 44 47 1

