# Molecule Name
# Created by GaussView 6.0.16
#

#
#

@<TRIPOS>MOLECULE
Molecule Name
56 59
SMALL
NO_CHARGES


@<TRIPOS>ATOM
1 N1     0.0455    -6.3256    -1.5816 N
2 C2     0.0584    -5.2451    -2.3052 C
3 C3     0.0660    -3.8550    -1.6414 C
4 C4     0.0565    -3.7681    -0.2951 C
5 C5     0.0473    -5.0605     0.5274 C
6 C6     0.0355    -6.2568    -0.1068 C
7 C7     0.0118    -7.5570     0.7177 C
8 C8     0.0106    -7.5032     2.0719 C
9 C9     0.0334    -6.1409     2.7895 C
10 C10     0.0494    -4.9966     2.0655 C
11 H11     0.0637    -4.0492     2.5621 H
12 H12     0.0362    -6.0977     3.8588 H
13 H13    -0.0058    -8.4082     2.6428 H
14 H14    -0.0037    -8.5039     0.2209 H
15 H15    -0.1872     8.5019     0.2084 H
16 C16    -0.1700     7.5861     0.7616 C
17 C17    -0.1720     7.6130     2.1177 C
18 C18    -0.1466     6.2950     2.9154 C
19 C19    -0.1196     5.1098     2.2606 C
20 C20    -0.1160     5.0886     0.7225 C
21 C21    -0.1431     6.2375     0.0170 C
22 N22    -0.1466     6.2147    -1.4658 N
23 C23    -0.1191     5.1027    -2.1631 C
24 C24    -0.0838     3.8758    -1.5740 C
25 C25    -0.0828     3.7786    -0.0495 C
26 H26    -0.1912     8.5502     2.6336 H
27 H27    -0.1505     6.3152     3.9849 H
28 H28    -0.1014     4.1926     2.8110 H
29 C29     0.0105     0.0915     0.4710 C
30 C30    -0.1831     7.4966    -2.1831 C
31 H31     0.3215     7.3952    -3.1216 H
32 H32    -1.2001     7.7820    -2.3541 H
33 C33     0.5176     8.5746    -1.3344 C
34 H34     1.5341     8.2888    -1.1637 H
35 H35     0.0122     8.6741    -0.3958 H
36 H36     0.4925     9.5101    -1.8532 H
37 C37     0.0098    -7.6382    -2.2420 C
38 H38    -0.8504    -7.6888    -2.8764 H
39 H39     0.8705    -7.7394    -2.8695 H
40 C40    -0.0287    -8.7572    -1.1849 C
41 H41    -0.9027    -8.6443    -0.5782 H
42 H42     0.8438    -8.6964    -0.5690 H
43 H43    -0.0545    -9.7083    -1.6734 H
44 C44     0.0406    -1.2480    -0.2873 C
45 C45     0.0517    -2.4043     0.4192 C
46 H46     0.0059     0.0933     1.5406 H
47 H47     0.0501    -1.2644    -1.3567 H
48 H48     0.0538    -2.3689     1.4888 H
49 H49    -0.1241     5.1625    -3.2312 H
50 H50     0.0633    -5.3227    -3.3723 H
51 H51     0.0775    -2.9698    -2.2421 H
52 C52    -0.0116     1.2685    -0.2010 C
53 C53    -0.0545     2.5871     0.5932 C
54 H54    -0.0008     1.2817    -1.2711 H
55 H55    -0.0625     2.5615     1.6621 H
56 H56    -0.0574     2.9891    -2.1731 H
@<TRIPOS>BOND
1 1 2 2
2 1 6 1
3 1 37 1
4 2 3 1
5 2 50 1
6 3 4 2
7 3 51 1
8 4 5 1
9 4 45 1
10 5 6 2
11 5 10 1
12 6 7 1
13 7 8 2
14 7 14 1
15 8 9 1
16 8 13 1
17 9 10 2
18 9 12 1
19 10 11 1
20 15 16 1
21 16 17 2
22 16 21 1
23 17 18 1
24 17 26 1
25 18 19 2
26 18 27 1
27 19 20 1
28 19 28 1
29 20 21 2
30 20 25 1
31 21 22 1
32 22 23 2
33 22 30 1
34 23 24 2
35 23 49 1
36 24 25 1
37 24 56 1
38 25 53 2
39 29 44 1
40 29 46 1
41 29 52 2
42 30 31 1
43 30 32 1
44 30 33 1
45 33 34 1
46 33 35 1
47 33 36 1
48 37 38 1
49 37 39 1
50 37 40 1
51 40 41 1
52 40 42 1
53 40 43 1
54 44 45 2
55 44 47 1
56 45 48 1
57 52 53 1
58 52 54 1
59 53 55 1

