# 11DIETHYL44CARBOCYANINE  xyzzy
# Created by GaussView 5.0.9
#

#
#

@<TRIPOS>MOLECULE
Molecule Name
52 55
SMALL
NO_CHARGES


@<TRIPOS>ATOM
1 N1     0.0000    -5.3854     1.2276 N
2 C2     0.0000    -4.2933     2.1061 C
3 C3     0.0000    -3.0047     1.7513 C
4 C4    -0.0000    -2.6180     0.3475 C
5 C5    -0.0000    -3.6211    -0.5881 C
6 C6     0.0000    -5.0840    -0.1579 C
7 C7     0.0000    -6.0831    -1.2299 C
8 C8     0.0000    -5.7364    -2.5272 C
9 C9    -0.0000    -4.3600    -2.9420 C
10 C10     0.0000    -3.3623    -2.0469 C
11 H11    -0.0000    -2.3608    -2.4500 H
12 H12    -0.0000    -4.1464    -4.0063 H
13 H13     0.0000    -6.4942    -3.3041 H
14 H14     0.0000    -7.1356    -1.0314 H
15 H15    -0.0000     7.1277    -1.0297 H
16 C16    -0.0000     6.0749    -1.2252 C
17 C17    -0.0000     5.7248    -2.5213 C
18 C18    -0.0000     4.3479    -2.9321 C
19 C19    -0.0000     3.3518    -2.0352 C
20 C20    -0.0000     3.6121    -0.5752 C
21 C21    -0.0000     5.0777    -0.1515 C
22 N22     0.0000     5.3850     1.2325 N
23 C23     0.0000     4.2963     2.1146 C
24 C24     0.0000     3.0070     1.7662 C
25 C25    -0.0000     2.6082     0.3628 C
26 H26    -0.0000     6.4806    -3.3002 H
27 H27    -0.0000     4.1318    -3.9959 H
28 H28    -0.0000     2.3506    -2.4388 H
29 C29    -0.0000     1.1914    -0.0309 C
30 C30     0.0000     6.7052     1.9199 C
31 H31    -0.8784     6.7331     2.5795 H
32 H32     0.8784     6.7331     2.5795 H
33 C33     0.0000     8.0027     1.1481 C
34 H34    -0.9014     8.1125     0.5380 H
35 H35     0.9014     8.1125     0.5380 H
36 H36     0.0000     8.8456     1.8490 H
37 C37     0.0000    -6.7032     1.9195 C
38 H38     0.8784    -6.7291     2.5791 H
39 H39    -0.8784    -6.7291     2.5791 H
40 C40     0.0000    -8.0028     1.1512 C
41 H41     0.9014    -8.1142     0.5413 H
42 H42    -0.9014    -8.1142     0.5413 H
43 H43     0.0000    -8.8439     1.8542 H
44 C44    -0.0000     0.0543     0.6929 C
45 C45    -0.0000    -1.2045    -0.0426 C
46 H46     0.0000     1.0313    -1.0998 H
47 H47    -0.0000     0.0405     1.7751 H
48 H48     0.0000    -1.0293    -1.1097 H
49 H49     0.0000     4.5664     3.1684 H
50 H50     0.0000    -4.5587     3.1608 H
51 H51    -0.0000    -2.2354     2.5140 H
52 H52    -0.0000     2.2446     2.5360 H
@<TRIPOS>BOND
1 1 2 Ar
2 1 6 Ar
3 1 37 1
4 2 3 Ar
5 2 50 1
6 3 4 Ar
7 3 51 1
8 4 5 Ar
9 4 45 Ar
10 5 6 Ar
11 5 10 Ar
12 6 7 Ar
13 7 8 Ar
14 7 14 1
15 8 9 Ar
16 8 13 1
17 9 10 Ar
18 9 12 1
19 10 11 1
20 15 16 1
21 16 17 Ar
22 16 21 Ar
23 17 18 Ar
24 17 26 1
25 18 19 Ar
26 18 27 1
27 19 20 Ar
28 19 28 1
29 20 21 Ar
30 20 25 Ar
31 21 22 Ar
32 22 23 Ar
33 22 30 1
34 23 24 Ar
35 23 49 1
36 24 25 Ar
37 24 52 1
38 25 29 Ar
39 29 44 Ar
40 29 46 1
41 30 31 1
42 30 32 1
43 30 33 1
44 33 34 1
45 33 35 1
46 33 36 1
47 37 38 1
48 37 39 1
49 37 40 1
50 40 41 1
51 40 42 1
52 40 43 1
53 44 45 Ar
54 44 47 1
55 45 48 1
