# Molecule Name
# Created by GaussView 6.0.16
#

#
#

@<TRIPOS>MOLECULE
Molecule Name
52 55
SMALL
NO_CHARGES


@<TRIPOS>ATOM
1 N1     0.7332    -4.9552     1.4378 N
2 C2     0.3610    -3.7339     2.1800 C
3 C3     0.2245    -2.5535     1.5272 C
4 C4     0.2297    -2.5468    -0.0059 C
5 C5     0.2860    -3.8947    -0.7335 C
6 C6     0.4569    -5.0277    -0.0114 C
7 C7     0.3789    -6.3975    -0.7101 C
8 C8     0.2107    -6.4637    -2.0540 C
9 C9     0.1006    -5.1692    -2.8827 C
10 C10     0.1346    -3.9644    -2.2635 C
11 H11     0.0508    -3.0641    -2.8358 H
12 H12    -0.0054    -5.2216    -3.9462 H
13 H13     0.1575    -7.4154    -2.5398 H
14 H14     0.4630    -7.2965    -0.1361 H
15 H15    -0.3320     7.2100    -0.2390 H
16 C16    -0.2848     6.2827    -0.7708 C
17 C17    -0.3068     6.2777    -2.1263 C
18 C18    -0.2379     4.9443    -2.8935 C
19 C19    -0.1557     3.7757    -2.2130 C
20 C20    -0.1322     3.7831    -0.6736 C
21 C21    -0.1918     4.9550     0.0047 C
22 N22    -0.1688     4.9710     1.4810 N
23 C23    -0.0910     3.8683     2.1653 C
24 C24    -0.0213     2.5053     1.4513 C
25 C25    -0.0414     2.4644     0.1034 C
26 H26    -0.3720     7.2009    -2.6634 H
27 H27    -0.2549     4.9405    -3.9633 H
28 H28    -0.1074     2.8484    -2.7447 H
29 C29     0.0249     1.1193    -0.6435 C
30 C30    -0.2353     6.2574     2.1893 C
31 H31    -1.2582     6.5082     2.3777 H
32 H32     0.2901     6.1808     3.1183 H
33 C33     0.4110     7.3544     1.3229 C
34 H34    -0.1141     7.4305     0.3937 H
35 H35     1.4341     7.1038     1.1348 H
36 H36     0.3621     8.2909     1.8381 H
37 C37     0.1306    -6.1223     2.0981 C
38 H38     0.9036    -6.7446     2.4982 H
39 H39    -0.5083    -5.7930     2.8906 H
40 C40    -0.6944    -6.9230     1.0733 C
41 H41    -0.0557    -7.2525     0.2807 H
42 H42    -1.4674    -6.3005     0.6732 H
43 H43    -1.1334    -7.7720     1.5542 H
44 C44     0.0987    -0.0412     0.0522 C
45 C45     0.1652    -1.3843    -0.6987 C
46 H46     0.0121     1.1010    -1.7133 H
47 H47     0.1102    -0.0244     1.1219 H
48 H48     0.1599    -1.3996    -1.7685 H
49 H49    -0.0752     3.9080     3.2344 H
50 H50     0.2070    -3.7793     3.2378 H
51 H51     0.1063    -1.6411     2.0737 H
52 H52     0.0424     1.6003     2.0185 H
@<TRIPOS>BOND
1 1 2 1
2 1 6 1
3 1 37 1
4 2 3 2
5 2 50 1
6 3 4 1
7 3 51 1
8 4 5 1
9 4 45 2
10 5 6 2
11 5 10 1
12 6 7 1
13 7 8 2
14 7 14 1
15 8 9 1
16 8 13 1
17 9 10 2
18 9 12 1
19 10 11 1
20 15 16 1
21 16 17 2
22 16 21 1
23 17 18 1
24 17 26 1
25 18 19 2
26 18 27 1
27 19 20 1
28 19 28 1
29 20 21 2
30 20 25 1
31 21 22 1
32 22 23 2
33 22 30 1
34 23 24 1
35 23 49 1
36 24 25 2
37 24 52 1
38 25 29 1
39 29 44 2
40 29 46 1
41 30 31 1
42 30 32 1
43 30 33 1
44 33 34 1
45 33 35 1
46 33 36 1
47 37 38 1
48 37 39 1
49 37 40 1
50 40 41 1
51 40 42 1
52 40 43 1
53 44 45 1
54 44 47 1
55 45 48 1

