# Molecule Name
# Created by GaussView 5.0.9
#

#
#

@<TRIPOS>MOLECULE
Molecule Name
48 51
SMALL
NO_CHARGES


@<TRIPOS>ATOM
1 N1     0.0000     2.3141    -0.5424 N
2 C2     0.0000     1.3077     0.4755 C
3 C3     0.0000     1.7151     1.8703 C
4 C4     0.0000     2.9842     2.2632 C
5 C5     0.0000     4.0236     1.2509 C
6 C6     0.0000     3.6933    -0.1381 C
7 C7     0.0000     4.8198    -0.9752 C
8 C8     0.0000     6.1478    -0.4937 C
9 C9     0.0000     6.4139     0.8631 C
10 C10     0.0000     5.3468     1.7388 C
11 H11     0.0000     0.9734     2.6525 H
12 H12     0.0000     3.2414     3.3151 H
13 H13     0.0000     5.5419     2.8089 H
14 H14     0.0000     7.4335     1.2355 H
15 H15     0.0000     6.9749    -1.2001 H
16 H16     0.0000     4.7671    -2.0478 H
17 H17     0.0000    -4.7665    -2.0488 H
18 C18     0.0000    -4.8196    -0.9763 C
19 C19     0.0000    -6.1478    -0.4952 C
20 C20     0.0000    -6.4144     0.8614 C
21 C21     0.0000    -5.3476     1.7376 C
22 C22     0.0000    -4.0243     1.2502 C
23 C23     0.0000    -3.6934    -0.1388 C
24 N24     0.0000    -2.3143    -0.5425 N
25 C25     0.0000    -1.3072     0.4754 C
26 C26     0.0000    -1.7162     1.8704 C
27 C27     0.0000    -2.9848     2.2627 C
28 H28     0.0000    -6.9747    -1.2020 H
29 H29     0.0000    -7.4342     1.2335 H
30 H30     0.0000    -5.5432     2.8076 H
31 H31     0.0000    -3.2427     3.3146 H
32 H32     0.0000    -0.9743     2.6528 H
33 C33     0.0000    -0.0009     0.2746 C
34 C34     0.0000    -1.8242    -1.9502 C
35 H35    -0.8821    -1.1828    -2.0706 H
36 H36     0.8821    -1.1828    -2.0706 H
37 C37     0.0000    -2.7447    -3.1502 C
38 H38    -0.9033    -3.3612    -3.1937 H
39 H39     0.9033    -3.3612    -3.1937 H
40 H40     0.0000    -2.1484    -4.0704 H
41 C41     0.0000     1.8249    -1.9504 C
42 H42     0.8821     1.1835    -2.0710 H
43 H43    -0.8821     1.1835    -2.0710 H
44 C44     0.0000     2.7459    -3.1499 C
45 H45     0.9033     3.3624    -3.1931 H
46 H46    -0.9033     3.3624    -3.1931 H
47 H47     0.0000     2.1502    -4.0705 H
48 H48     0.1269    -0.0119    -0.9725 H
@<TRIPOS>BOND
1 1 2 Ar
2 1 6 Ar
3 1 41 1
4 2 3 Ar
5 2 33 Ar
6 3 4 Ar
7 3 11 1
8 4 5 Ar
9 4 12 1
10 5 6 Ar
11 5 10 Ar
12 6 7 Ar
13 7 8 Ar
14 7 16 1
15 8 9 Ar
16 8 15 1
17 9 10 Ar
18 9 14 1
19 10 13 1
20 17 18 1
21 18 19 Ar
22 18 23 Ar
23 19 20 Ar
24 19 28 1
25 20 21 Ar
26 20 29 1
27 21 22 Ar
28 21 30 1
29 22 23 Ar
30 22 27 Ar
31 23 24 Ar
32 24 25 Ar
33 24 34 1
34 25 26 Ar
35 25 33 Ar
36 26 27 Ar
37 26 32 1
38 27 31 1
39 33 48 1
40 34 35 1
41 34 36 1
42 34 37 1
43 37 38 1
44 37 39 1
45 37 40 1
46 41 42 1
47 41 43 1
48 41 44 1
49 44 45 1
50 44 46 1
51 44 47 1
