# 
# Created by GaussView 5.0.9
#

#
#

@<TRIPOS>MOLECULE
Molecule Name
12 12
SMALL
NO_CHARGES


@<TRIPOS>ATOM
1 C1    -5.2922    -2.0916     0.2389 C
2 C2    -3.8970    -2.0916     0.2389 C
3 C3    -3.1995    -0.8839     0.2389 C
4 C4    -3.8971     0.3247     0.2377 C
5 C5    -5.2920     0.3246     0.2372 C
6 C6    -5.9896    -0.8836     0.2382 C
7 H7    -5.8419    -3.0439     0.2394 H
8 H8    -3.3475    -3.0441     0.2402 H
9 H9    -2.0998    -0.8838     0.2395 H
10 H10    -3.3469     1.2768     0.2377 H
11 H11    -5.8421     1.2769     0.2363 H
12 H12    -7.0892    -0.8834     0.2381 H
@<TRIPOS>BOND
1 1 2 Ar
2 1 6 Ar
3 1 7 1
4 2 3 Ar
5 2 8 1
6 3 4 Ar
7 3 9 1
8 4 5 Ar
9 4 10 1
10 5 6 Ar
11 5 11 1
12 6 12 1
